Version 4
SHEET 1 3048 680
WIRE 1760 0 1648 0
WIRE 1648 64 1648 0
WIRE 1664 64 1648 64
WIRE 1760 80 1760 0
WIRE 1760 80 1728 80
WIRE 1872 80 1760 80
WIRE 1456 96 1456 80
WIRE 1664 96 1456 96
WIRE 128 112 128 64
WIRE 1456 112 1456 96
WIRE 2080 112 2064 112
WIRE 2208 112 2160 112
WIRE 768 192 720 192
WIRE 944 192 848 192
WIRE 352 208 352 176
WIRE 1872 208 1872 80
WIRE 1920 208 1872 208
WIRE 2064 208 2064 112
WIRE 2064 208 2000 208
WIRE 2096 208 2064 208
WIRE 2208 224 2208 112
WIRE 2208 224 2160 224
WIRE 560 240 448 240
WIRE 1920 240 1872 240
WIRE 2032 240 2000 240
WIRE 2096 240 2032 240
WIRE 2032 288 2032 240
WIRE 448 304 448 240
WIRE 464 304 448 304
WIRE 560 320 560 240
WIRE 560 320 528 320
WIRE 576 320 560 320
WIRE 720 320 720 192
WIRE 720 320 656 320
WIRE 768 320 720 320
WIRE 352 336 352 288
WIRE 464 336 352 336
WIRE 944 336 944 192
WIRE 944 336 832 336
WIRE 1664 336 1456 336
WIRE 768 352 704 352
WIRE 1760 352 1728 352
WIRE 1872 352 1872 240
WIRE 1872 352 1760 352
WIRE 352 368 352 336
WIRE 1664 368 1648 368
WIRE 1648 432 1648 368
WIRE 1760 432 1760 352
WIRE 1760 432 1648 432
WIRE 352 480 352 448
WIRE 544 544 448 544
WIRE 704 544 704 352
WIRE 704 544 624 544
WIRE 720 544 704 544
WIRE 864 544 800 544
FLAG 800 368 0
FLAG 864 544 0
FLAG 352 480 0
FLAG 128 192 0
FLAG 128 64 vcc
FLAG 352 176 vcc
FLAG 800 304 vcc
FLAG 448 624 0
FLAG 496 288 vcc
FLAG 496 352 0
FLAG 2128 256 0
FLAG 2128 192 vcc
FLAG 560 240 vm
FLAG 1696 384 vcc
FLAG 1696 320 0
FLAG 1456 416 0
FLAG 2032 368 0
FLAG 1696 48 vcc
FLAG 1696 112 0
FLAG 1456 192 0
FLAG 1456 0 vcc
SYMBOL Res 336 192 R0
SYMATTR InstName R1
SYMATTR Value 20k
SYMBOL Res 336 352 R0
SYMATTR InstName R2
SYMATTR Value 10k
SYMBOL Res 560 336 R270
WINDOW 0 32 56 VTop 2
WINDOW 3 0 56 VBottom 2
SYMATTR InstName R3
SYMATTR Value 10k
SYMBOL Res 752 208 R270
WINDOW 0 32 56 VTop 2
WINDOW 3 0 56 VBottom 2
SYMATTR InstName R4
SYMATTR Value 28.7k
SYMBOL Res 528 560 R270
WINDOW 0 32 56 VTop 2
WINDOW 3 0 56 VBottom 2
SYMATTR InstName R5
SYMATTR Value 10k
SYMBOL Res 816 528 R90
WINDOW 0 0 56 VBottom 2
WINDOW 3 32 56 VTop 2
SYMATTR InstName R6
SYMATTR Value 28.7k
SYMBOL UniversalOpAmp 800 336 R0
SYMATTR InstName U1
SYMBOL Voltage 128 96 R0
SYMATTR InstName V1
SYMATTR Value 3.3
SYMBOL Voltage 448 528 R0
SYMATTR InstName Vntc
SYMATTR Value 1.1
SYMBOL UniversalOpAmp 496 320 R0
SYMATTR InstName U2
SYMBOL UniversalOpAmp 2128 224 R0
SYMATTR InstName U3
SYMBOL res 2048 384 R180
WINDOW 0 36 76 Left 2
WINDOW 3 36 40 Left 2
SYMATTR InstName Rb
SYMATTR Value 16k
SYMBOL res 2016 224 R90
WINDOW 0 57 92 VBottom 2
WINDOW 3 32 56 VTop 2
SYMATTR InstName Ra
SYMATTR Value 1.5k
SYMBOL UniversalOpAmp 1696 352 M180
SYMATTR InstName U4
SYMBOL Misc\\signal 1456 320 R0
WINDOW 3 -91 136 Left 2
WINDOW 123 0 0 Left 0
WINDOW 39 0 0 Left 0
SYMATTR InstName V2
SYMATTR Value PWL(0 0.1 10m 0.4)
SYMBOL res 2016 192 R90
WINDOW 0 -3 78 VBottom 2
WINDOW 3 -27 25 VTop 2
SYMATTR InstName Ro
SYMATTR Value 1.5k
SYMBOL res 2176 96 R90
WINDOW 0 0 56 VBottom 2
WINDOW 3 32 56 VTop 2
SYMATTR InstName Rf
SYMATTR Value 16k
SYMBOL UniversalOpAmp 1696 80 R0
SYMATTR InstName U5
SYMBOL res 1440 -16 R0
SYMATTR InstName R7
SYMATTR Value 32k
SYMBOL res 1440 96 R0
SYMATTR InstName R8
SYMATTR Value 1k
TEXT 704 72 Left 2 !.tran 13m
