Version 4
SHEET 1 4004 680
WIRE 720 -80 496 -80
WIRE 496 -64 496 -80
WIRE 720 -48 720 -80
WIRE 496 48 496 16
WIRE 880 48 496 48
WIRE 976 64 944 64
WIRE 720 80 720 32
WIRE 832 80 720 80
WIRE 880 80 832 80
WIRE 128 112 128 64
WIRE 496 128 496 48
WIRE 720 128 720 80
WIRE 832 192 832 80
WIRE 880 192 832 192
WIRE 976 192 976 64
WIRE 976 192 960 192
WIRE 496 240 496 208
WIRE 608 240 496 240
WIRE 720 240 720 208
WIRE 720 240 608 240
WIRE 608 272 608 240
FLAG 128 192 0
FLAG 128 64 vcc
FLAG 912 96 vcc
FLAG 912 32 0
FLAG 608 272 0
FLAG 496 -80 vcc
SYMBOL Voltage 128 96 R0
SYMATTR InstName V1
SYMATTR Value 3.3
SYMBOL UniversalOpAmp 912 64 M180
WINDOW 0 131 -6 Left 2
SYMATTR InstName U8
SYMBOL res 976 176 R90
WINDOW 0 64 55 VBottom 2
WINDOW 3 32 56 VTop 2
SYMATTR InstName Rf
SYMATTR Value ""
SYMBOL res 704 -64 R0
SYMATTR InstName R1
SYMATTR Value ""
SYMBOL res 704 112 R0
SYMATTR InstName R2
SYMATTR Value ""
SYMBOL VarRes 480 112 R0
SYMATTR InstName NTC
SYMATTR Value ""
SYMBOL res 480 -80 R0
SYMATTR InstName R3
SYMATTR Value ""
